data_image0
_chemical_formula_structural       Zr6O32C48H28
_chemical_formula_sum              "Zr6 O32 C48 H28"
_cell_length_a       14.833970118552848
_cell_length_b       14.833964931298016
_cell_length_c       14.833974617947481
_cell_angle_alpha    60.00001388949468
_cell_angle_beta     60.00001003364052
_cell_angle_gamma    59.999988432423876

_space_group_name_H-M_alt    "P 1"
_space_group_IT_number       1

loop_
  _space_group_symop_operation_xyz
  'x, y, z'

loop_
  _atom_site_type_symbol
  _atom_site_label
  _atom_site_symmetry_multiplicity
  _atom_site_fract_x
  _atom_site_fract_y
  _atom_site_fract_z
  _atom_site_occupancy
  Zr  Zr1       1.0  0.8796000042930148  0.12040003893404712  0.12039995247992337  1.0000
  Zr  Zr2       1.0  0.12039987033094833  0.8796007017157238  0.8795995576223795  1.0000
  Zr  Zr3       1.0  0.12040005508312071  0.12040033221137912  0.8795995576223795  1.0000
  Zr  Zr4       1.0  0.8796000550831207  0.12040033221137912  0.8795995576223795  1.0000
  Zr  Zr5       1.0  0.12039981954084243  0.8796004084383917  0.12039995247992337  1.0000
  Zr  Zr6       1.0  0.8795998195408424  0.8796004084383917  0.12039995247992337  1.0000
  O   O1        1.0  0.06727000381684872  0.0672700575104488  0.06726993485585372  1.0000
  O   O2        1.0  0.7373000438495544  0.07360009148097388  0.26789982081991726  1.0000
  O   O3        1.0  0.07359987319678328  0.7373006656103969  0.9211995879960367  1.0000
  O   O4        1.0  0.2678998536835362  0.9212007067189565  0.7372995859139715  1.0000
  O   O5        1.0  0.9211999616078071  0.2679001737841299  0.07359990300025597  1.0000
  O   O6        1.0  0.2679000507320737  0.07360031053981593  0.9211995879960367  1.0000
  O   O7        1.0  0.9212000903972568  0.07360023329151498  0.7372995859139715  1.0000
  O   O8        1.0  0.07360000812480515  0.26790039783641845  0.7372995859139715  1.0000
  O   O9        1.0  0.2678998663449683  0.7373003643098075  0.07359990300025597  1.0000
  O   O10       1.0  0.9211998663142639  0.7373004465515549  0.26789982081991726  1.0000
  O   O11       1.0  0.07359980713583371  0.9212005649084153  0.26789982081991726  1.0000
  O   O12       1.0  0.7372998071665381  0.921200482666668  0.07359990300025597  1.0000
  O   O13       1.0  0.7373000261946757  0.26790035961461167  0.9211995879960367  1.0000
  O   O14       1.0  0.7373000507320736  0.07360031053981593  0.9211995879960367  1.0000
  O   O15       1.0  0.07359986631426399  0.7373004465515549  0.26789982081991726  1.0000
  O   O16       1.0  0.267899807166538  0.921200482666668  0.07359990300025597  1.0000
  O   O17       1.0  0.9212000081248051  0.26790039783641845  0.7372995859139715  1.0000
  O   O18       1.0  0.2679000903972569  0.07360023329151498  0.7372995859139715  1.0000
  O   O19       1.0  0.9212000438495543  0.07360009148097388  0.26789982081991726  1.0000
  O   O20       1.0  0.07360002619467582  0.26790035961461167  0.9211995879960367  1.0000
  O   O21       1.0  0.26789987319678343  0.7373006656103969  0.9211995879960367  1.0000
  O   O22       1.0  0.9211998663449683  0.7373003643098075  0.07359990300025597  1.0000
  O   O23       1.0  0.07359985368353612  0.9212007067189565  0.7372995859139715  1.0000
  O   O24       1.0  0.7372998071358337  0.9212005649084153  0.26789982081991726  1.0000
  O   O25       1.0  0.7372999616078072  0.2679001737841299  0.07359990300025597  1.0000
  O   O26       1.0  0.0672700812448404  0.06727025445000195  0.7981895830603173  1.0000
  O   O27       1.0  0.06726982657023349  0.7981904120036794  0.06726993485585372  1.0000
  O   O28       1.0  0.7981900038168487  0.0672700575104488  0.06726993485585372  1.0000
  O   O29       1.0  0.9505698434303342  0.9505707458292254  0.9505695673101063  1.0000
  O   O30       1.0  0.14828984343033405  0.9505707458292254  0.9505695673101063  1.0000
  O   O31       1.0  0.9505700530085797  0.1482903266727347  0.9505695673101063  1.0000
  O   O32       1.0  0.9505697854427803  0.9505704782634261  0.1482899508510135  1.0000
  C   C1        1.0  0.9959000458388299  0.3088004745216043  0.9958994338007364  1.0000
  C   C2        1.0  0.5534000397863034  0.07530019134081971  0.4595997290865735  1.0000
  C   C3        1.0  0.07529995720580582  0.5534005937347745  0.9116994918536138  1.0000
  C   C4        1.0  0.45959983087326584  0.9117006319471378  0.5533997063063306  1.0000
  C   C5        1.0  0.9116999044723055  0.4596002205717252  0.07529997048366374  1.0000
  C   C6        1.0  0.45960010010006414  0.07530030794625796  0.9116994918536138  1.0000
  C   C7        1.0  0.911700056039976  0.07530018161371788  0.5533997063063306  1.0000
  C   C8        1.0  0.07529994489999704  0.45960040389367524  0.5533997063063306  1.0000
  C   C9        1.0  0.4595998727180259  0.5534002840802845  0.07529997048366374  1.0000
  C   C10       1.0  0.911699896892045  0.5534004771293363  0.4595997290865735  1.0000
  C   C11       1.0  0.07529981461959347  0.9117006416742397  0.4595997290865735  1.0000
  C   C12       1.0  0.5533997904455742  0.911700448625188  0.07529997048366374  1.0000
  C   C13       1.0  0.5533999889600855  0.45960053022621516  0.9116994918536138  1.0000
  C   C14       1.0  0.5534001001000641  0.07530030794625796  0.9116994918536138  1.0000
  C   C15       1.0  0.07529989689204511  0.5534004771293363  0.4595997290865735  1.0000
  C   C16       1.0  0.45959979044557414  0.911700448625188  0.07529997048366374  1.0000
  C   C17       1.0  0.9116999448999971  0.45960040389367524  0.5533997063063306  1.0000
  C   C18       1.0  0.45960005603997584  0.07530018161371788  0.5533997063063306  1.0000
  C   C19       1.0  0.9117000397863035  0.07530019134081971  0.4595997290865735  1.0000
  C   C20       1.0  0.07529998896008559  0.45960053022621516  0.9116994918536138  1.0000
  C   C21       1.0  0.4595999572058059  0.5534005937347745  0.9116994918536138  1.0000
  C   C22       1.0  0.911699872718026  0.5534002840802845  0.07529997048366374  1.0000
  C   C23       1.0  0.0752998308732657  0.9117006319471378  0.5533997063063306  1.0000
  C   C24       1.0  0.5533998146195933  0.9117006416742397  0.4595997290865735  1.0000
  C   C25       1.0  0.5533999044723056  0.4596002205717252  0.07529997048366374  1.0000
  C   C26       1.0  0.30879983020387264  0.9959007092200672  0.6993996303721874  1.0000
  C   C27       1.0  0.995899967896507  0.6994006304062497  0.9958994338007364  1.0000
  C   C28       1.0  0.6993998038472427  0.9959006049211149  0.30879978738439945  1.0000
  C   C29       1.0  0.9959000163994213  0.3088003368289701  0.6993996303721874  1.0000
  C   C30       1.0  0.6994000458388296  0.3088004745216043  0.9958994338007364  1.0000
  C   C31       1.0  0.30879985964328094  0.9959008469127018  0.9958994338007364  1.0000
  C   C32       1.0  0.9958998038472429  0.9959006049211149  0.30879978738439945  1.0000
  C   C33       1.0  0.6993998596432811  0.9959008469127018  0.9958994338007364  1.0000
  C   C34       1.0  0.30879996789650715  0.6994006304062497  0.9958994338007364  1.0000
  C   C35       1.0  0.9958999121004688  0.6994003884146631  0.30879978738439945  1.0000
  C   C36       1.0  0.9958998302038725  0.9959007092200672  0.6993996303721874  1.0000
  C   C37       1.0  0.6004998591233561  0.993800794431228  0.99379948732206  1.0000
  C   C38       1.0  0.9937999402631766  0.6005003819363381  0.41189973753730874  1.0000
  C   C39       1.0  0.41189985912335586  0.993800794431228  0.99379948732206  1.0000
  C   C40       1.0  0.9937999484517556  0.4119004074454334  0.6004996956510557  1.0000
  C   C41       1.0  0.4118998026707445  0.9938006990074553  0.6004996956510557  1.0000
  C   C42       1.0  0.9937998435569613  0.9938005753487685  0.41189973753730874  1.0000
  C   C43       1.0  0.9938000049043668  0.4119005028692062  0.99379948732206  1.0000
  C   C44       1.0  0.4118999558295711  0.6005006010187978  0.99379948732206  1.0000
  C   C45       1.0  0.9937999558295713  0.6005006010187978  0.99379948732206  1.0000
  C   C46       1.0  0.9937998026707447  0.9938006990074553  0.6004996956510557  1.0000
  C   C47       1.0  0.6004998435569614  0.9938005753487685  0.41189973753730874  1.0000
  C   C48       1.0  0.600500004904367  0.4119005028692062  0.99379948732206  1.0000
  H   H1        1.0  0.5908999969701889  0.13800017017535052  0.4219998358842715  1.0000
  H   H2        1.0  0.13799994212154498  0.5909006089614168  0.8490995067954934  1.0000
  H   H3        1.0  0.42199987360671926  0.8491005924081397  0.5908996603784215  1.0000
  H   H4        1.0  0.8490999196392272  0.4220002660495503  0.1379998946719951  1.0000
  H   H5        1.0  0.4220000446012655  0.1380004040019756  0.8490995067954934  1.0000
  H   H6        1.0  0.8491000598022679  0.13800022001704246  0.5908996603784215  1.0000
  H   H7        1.0  0.13799994433216042  0.4220004509572578  0.5908996603784215  1.0000
  H   H8        1.0  0.42199987489456053  0.5909003555388839  0.1379998946719951  1.0000
  H   H9        1.0  0.8490998944904684  0.5909003751347917  0.4219998358842715  1.0000
  H   H10       1.0  0.1379998107746403  0.8491005425664477  0.4219998358842715  1.0000
  H   H11       1.0  0.5908998489137863  0.8491004075004321  0.1379998946719951  1.0000
  H   H12       1.0  0.5908999868662118  0.42200051947208334  0.8490995067954934  1.0000
  H   H13       1.0  0.5909000446012654  0.1380004040019756  0.8490995067954934  1.0000
  H   H14       1.0  0.13799989449046843  0.5909003751347917  0.4219998358842715  1.0000
  H   H15       1.0  0.42199984891378645  0.8491004075004321  0.1379998946719951  1.0000
  H   H16       1.0  0.8490999443321604  0.4220004509572578  0.5908996603784215  1.0000
  H   H17       1.0  0.42200005980226807  0.13800022001704246  0.5908996603784215  1.0000
  H   H18       1.0  0.8490999969701889  0.13800017017535052  0.4219998358842715  1.0000
  H   H19       1.0  0.13799998686621162  0.42200051947208334  0.8490995067954934  1.0000
  H   H20       1.0  0.4219999421215448  0.5909006089614168  0.8490995067954934  1.0000
  H   H21       1.0  0.8490998748945604  0.5909003555388839  0.1379998946719951  1.0000
  H   H22       1.0  0.13799987360671948  0.8491005924081397  0.5908996603784215  1.0000
  H   H23       1.0  0.5908998107746405  0.8491005425664477  0.4219998358842715  1.0000
  H   H24       1.0  0.5908999196392272  0.4220002660495503  0.1379998946719951  1.0000
  H   H25       1.0  0.09377007654998733  0.09377024975514893  0.7186895971448763  1.0000
  H   H26       1.0  0.09376981452691507  0.718690399960361  0.09376997098580889  1.0000
  H   H27       1.0  0.09376996290600342  0.09377010320218425  0.09376997098580889  1.0000
  H   H28       1.0  0.7186899629060034  0.09377010320218425  0.09376997098580889  1.0000
