data_image0
_chemical_formula_structural       Zr6O30C48H24
_chemical_formula_sum              "Zr6 O30 C48 H24"
_cell_length_a       14.563269231140536
_cell_length_b       14.563273363823358
_cell_length_c       14.563283202998674
_cell_angle_alpha    61.68453533214877
_cell_angle_beta     61.68455944969905
_cell_angle_gamma    61.68454770820577

_space_group_name_H-M_alt    "P 1"
_space_group_IT_number       1

loop_
  _space_group_symop_operation_xyz
  'x, y, z'

loop_
  _atom_site_type_symbol
  _atom_site_label
  _atom_site_symmetry_multiplicity
  _atom_site_fract_x
  _atom_site_fract_y
  _atom_site_fract_z
  _atom_site_occupancy
  Zr  Zr1       1.0  0.8730243206999999  0.11881561709999999  0.12235706109999998  1.0000
  Zr  Zr2       1.0  0.12697567930000003  0.8811833828999999  0.8776429389  1.0000
  Zr  Zr3       1.0  0.12235696810000005  0.8730244902999998  0.1188150812  1.0000
  Zr  Zr4       1.0  0.8776430319  0.12697550970000004  0.8811839188  1.0000
  Zr  Zr5       1.0  0.11881534759999997  0.12235717670000006  0.8730240553999999  1.0000
  Zr  Zr6       1.0  0.8811836523999997  0.8776428233  0.1269759446  1.0000
  O   O1        1.0  0.9192641443999999  0.261613352  0.08497779229999997  1.0000
  O   O2        1.0  0.08073585560000007  0.738386648  0.9150222076999996  1.0000
  O   O3        1.0  0.08497790130000007  0.9192632140999998  0.2616136044  1.0000
  O   O4        1.0  0.9150220986999998  0.08073678590000001  0.7383863956000001  1.0000
  O   O5        1.0  0.26161369259999995  0.08497823849999996  0.9192631352  1.0000
  O   O6        1.0  0.7383863074000002  0.9150217614999998  0.0807368648  1.0000
  O   O7        1.0  0.7550205725000001  0.05351319190000005  0.9178646492999999  1.0000
  O   O8        1.0  0.24497942750000007  0.9464868081  0.0821353507  1.0000
  O   O9        1.0  0.9178648189000003  0.7550197392  0.053514256999999996  1.0000
  O   O10       1.0  0.08213518110000008  0.24498026080000002  0.9464857429999999  1.0000
  O   O11       1.0  0.05351346429999997  0.9178649308  0.7550196844  1.0000
  O   O12       1.0  0.9464865356999999  0.08213506920000001  0.2449803156  1.0000
  O   O13       1.0  0.2660777166  0.9227873419999999  0.7335563728000001  1.0000
  O   O14       1.0  0.7339222834  0.07721265799999999  0.2664436272  1.0000
  O   O15       1.0  0.7335563767000002  0.2660776439999999  0.9227866343000001  1.0000
  O   O16       1.0  0.2664436233000001  0.7339223559999999  0.0772133657  1.0000
  O   O17       1.0  0.9227881390999997  0.7335558342999999  0.2660780337  1.0000
  O   O18       1.0  0.07721186090000001  0.26644416569999996  0.7339219663  1.0000
  O   O19       1.0  0.08400714530000003  0.7267190161  0.25885808829999996  1.0000
  O   O20       1.0  0.9159928547000001  0.2732809839  0.7411419116999999  1.0000
  O   O21       1.0  0.25885821200000003  0.08400707359999997  0.7267192483  1.0000
  O   O22       1.0  0.7411417880000001  0.9159929263999999  0.2732807517  1.0000
  O   O23       1.0  0.7267187306999999  0.25885864489999993  0.0840056274  1.0000
  O   O24       1.0  0.27328126930000013  0.7411413551  0.9159943725999999  1.0000
  O   O25       1.0  0.8361895325999998  0.04449227039999999  0.047834091  1.0000
  O   O26       1.0  0.16381046740000005  0.9555077295999997  0.952165909  1.0000
  O   O27       1.0  0.04783390800000004  0.8361897026  0.0444923924  1.0000
  O   O28       1.0  0.9521660919999999  0.16381029740000014  0.9555076075999998  1.0000
  O   O29       1.0  0.04449199360000006  0.04783421870000005  0.8361896438999997  1.0000
  O   O30       1.0  0.9555080063999999  0.9521657813  0.16381035609999997  1.0000
  C   C1        1.0  0.6972160264999998  0.9966561212000002  0.3094197633  1.0000
  C   C2        1.0  0.3027839734999999  0.003343878799999992  0.6905802367  1.0000
  C   C3        1.0  0.3094195938  0.6972165792000002  0.9966532229999998  1.0000
  C   C4        1.0  0.6905804061999999  0.3027834207999999  0.003346777  1.0000
  C   C5        1.0  0.9966559132  0.30941916029999994  0.6972166083999999  1.0000
  C   C6        1.0  0.003344086800000028  0.6905808397  0.30278339159999995  1.0000
  C   C7        1.0  0.00010582210000003273  0.7043589284  0.9878376037  1.0000
  C   C8        1.0  0.9998941779  0.29564107159999997  0.0121623963  1.0000
  C   C9        1.0  0.9878377038999999  0.00010619609999998224  0.7043587039  1.0000
  C   C10       1.0  0.012162296100000084  0.9998938039  0.29564129609999995  1.0000
  C   C11       1.0  0.70435846  0.9878368003  0.0001067635  1.0000
  C   C12       1.0  0.2956415400000001  0.01216319970000004  0.9998932364999998  1.0000
  C   C13       1.0  0.9997978053  0.40155054529999995  0.0052094731  1.0000
  C   C14       1.0  0.0002021947000000243  0.5984494547  0.9947905269  1.0000
  C   C15       1.0  0.005206244699999978  0.9998019293  0.40155024449999993  1.0000
  C   C16       1.0  0.9947937552999999  0.00019807069999998436  0.5984497555  1.0000
  C   C17       1.0  0.40155017600000004  0.005208178599999947  0.9997996939  1.0000
  C   C18       1.0  0.5984498240000001  0.9947918213999999  0.00020030609999999998  1.0000
  C   C19       1.0  0.40431801469999984  0.0019152656999999896  0.5918396316  1.0000
  C   C20       1.0  0.5956819853  0.9980847342999999  0.4081603683999999  1.0000
  C   C21       1.0  0.5918398133  0.40431784750000005  0.0019141225999999999  1.0000
  C   C22       1.0  0.4081601867000002  0.5956821524999999  0.9980858774  1.0000
  C   C23       1.0  0.0019147197999999776  0.5918396806  0.40431822269999995  1.0000
  C   C24       1.0  0.9980852802  0.4081603194000001  0.5956817772999999  1.0000
  C   C25       1.0  0.9097098503  0.4627804261  0.07216493199999999  1.0000
  C   C26       1.0  0.0902901497  0.5372195739  0.9278350679999999  1.0000
  C   C27       1.0  0.07216725630000013  0.9097064856999998  0.46278131899999997  1.0000
  C   C28       1.0  0.9278327436999998  0.09029351430000002  0.537218681  1.0000
  C   C29       1.0  0.46278105399999986  0.07216603699999997  0.9097078431  1.0000
  C   C30       1.0  0.5372189459999999  0.9278339630000001  0.09029215689999999  1.0000
  C   C31       1.0  0.5605641491000001  0.0669413195000001  0.9098314820999998  1.0000
  C   C32       1.0  0.43943585090000004  0.9330586804999998  0.0901685179  1.0000
  C   C33       1.0  0.9098303049  0.5605631451  0.0669430905  1.0000
  C   C34       1.0  0.09016969510000009  0.43943685489999995  0.9330569094999999  1.0000
  C   C35       1.0  0.06693999249999998  0.909833584  0.5605637938  1.0000
  C   C36       1.0  0.9330600074999997  0.09016641599999999  0.4394362062  1.0000
  C   C37       1.0  0.45703490749999987  0.9134134915  0.5506288721  1.0000
  C   C38       1.0  0.5429650925  0.08658650850000002  0.4493711278999999  1.0000
  C   C39       1.0  0.5506284279000001  0.45703542420000004  0.9134142656999998  1.0000
  C   C40       1.0  0.4493715720999999  0.5429645758  0.08658573429999998  1.0000
  C   C41       1.0  0.9134135329  0.5506290366  0.457034803  1.0000
  C   C42       1.0  0.08658646710000001  0.44937096340000005  0.5429651969999999  1.0000
  C   C43       1.0  0.08849267890000008  0.5405634771  0.4479600121999999  1.0000
  C   C44       1.0  0.9115073211000002  0.45943652289999987  0.5520399878  1.0000
  C   C45       1.0  0.44796028169999996  0.08849220000000008  0.5405632152999998  1.0000
  C   C46       1.0  0.5520397183  0.9115077999999999  0.4594367847  1.0000
  C   C47       1.0  0.5405625116999999  0.4479605643  0.08849326579999998  1.0000
  C   C48       1.0  0.4594374883000001  0.5520394357  0.9115067341999998  1.0000
  H   H1        1.0  0.5912682653999999  0.4223661740999999  0.8466712748999999  1.0000
  H   H2        1.0  0.40873173460000006  0.5776338259000001  0.15332872509999998  1.0000
  H   H3        1.0  0.8466714992999997  0.5912678976  0.42236634  1.0000
  H   H4        1.0  0.15332850070000004  0.40873210239999996  0.57763366  1.0000
  H   H5        1.0  0.4223660664  0.8466715494999999  0.5912680987999999  1.0000
  H   H6        1.0  0.5776339335999999  0.15332845050000002  0.4087319012  1.0000
  H   H7        1.0  0.5733940665999999  0.4062879837999999  0.156680603  1.0000
  H   H8        1.0  0.42660593339999986  0.5937120162000001  0.843319397  1.0000
  H   H9        1.0  0.1566804836  0.5733943366  0.406288292  1.0000
  H   H10       1.0  0.8433195164  0.4266056633999999  0.5937117079999998  1.0000
  H   H11       1.0  0.4062883745  0.15668080290000005  0.5733941991999999  1.0000
  H   H12       1.0  0.5937116254999999  0.8433191971  0.42660580080000005  1.0000
  H   H13       1.0  0.12785548250000012  0.8401134490999999  0.4323794196  1.0000
  H   H14       1.0  0.8721445174999999  0.15988655090000006  0.5676205803999999  1.0000
  H   H15       1.0  0.4323794535  0.12785547140000006  0.8401129747  1.0000
  H   H16       1.0  0.5676205464999999  0.8721445286  0.15988702529999999  1.0000
  H   H17       1.0  0.8401129553999999  0.4323782664  0.1278565093  1.0000
  H   H18       1.0  0.1598870446  0.5676217336000001  0.8721434907  1.0000
  H   H19       1.0  0.11798993899999995  0.8401140524  0.6091921568000002  1.0000
  H   H20       1.0  0.882010061  0.1598859476  0.39080784319999995  1.0000
  H   H21       1.0  0.6091922825  0.1179891498  0.8401144490999999  1.0000
  H   H22       1.0  0.39080771749999993  0.8820108502000001  0.15988555089999998  1.0000
  H   H23       1.0  0.8401151033000002  0.6091910163999998  0.11798995770000001  1.0000
  H   H24       1.0  0.15988489670000017  0.3908089836  0.8820100422999998  1.0000
