data_image0
_chemical_formula_structural       C48H28O32Zr6
_chemical_formula_sum              "C48 H28 O32 Zr6"
_cell_length_a       14.833975676302218
_cell_length_b       14.833973947217878
_cell_length_c       14.833975676302218
_cell_angle_alpha    59.99996065343776
_cell_angle_beta     59.999979932718944
_cell_angle_gamma    59.99996065343776

_space_group_name_H-M_alt    "P 1"
_space_group_IT_number       1

loop_
  _space_group_symop_operation_xyz
  'x, y, z'

loop_
  _atom_site_type_symbol
  _atom_site_label
  _atom_site_symmetry_multiplicity
  _atom_site_fract_x
  _atom_site_fract_y
  _atom_site_fract_z
  _atom_site_occupancy
  C   C1        1.0  0.004099965212541797  0.004099856959315887  0.3005999652125418  1.0000
  C   C2        1.0  0.004099938855912106  0.004099752660363463  0.691199938855912  1.0000
  C   C3        1.0  0.3005997232209551  0.6911999873588264  0.004099723220955042  1.0000
  C   C4        1.0  0.6911998011632777  0.300599831474181  0.0040998011632777725  1.0000
  C   C5        1.0  0.30059996521254184  0.004099856959315887  0.004099965212541769  1.0000
  C   C6        1.0  0.691199938855912  0.004099752660363463  0.004099938855912035  1.0000
  C   C7        1.0  0.004099801163277945  0.300599831474181  0.6911998011632776  1.0000
  C   C8        1.0  0.004099723220955052  0.6911999873588264  0.3005997232209551  1.0000
  C   C9        1.0  0.004099856959315885  0.3006000734657677  0.004099856959315865  1.0000
  C   C10       1.0  0.004099752660363394  0.6912001250514607  0.004099752660363444  1.0000
  C   C11       1.0  0.6911999094165037  0.004099614967729155  0.30059990941650366  1.0000
  C   C12       1.0  0.3005999094165037  0.004099614967729155  0.6911999094165037  1.0000
  C   C13       1.0  0.08829976660356097  0.4465997059817546  0.9246997666035611  1.0000
  C   C14       1.0  0.4465998730500318  0.08829973448590273  0.5403998730500319  1.0000
  C   C15       1.0  0.9246997185956091  0.5403997792174156  0.0882997185956089  1.0000
  C   C16       1.0  0.5403996211305957  0.9246997596947248  0.4465996211305957  1.0000
  C   C17       1.0  0.9246998488760128  0.08829954143685108  0.44659984887601273  1.0000
  C   C18       1.0  0.5403997907775802  0.44659989903080616  0.08829979077758014  1.0000
  C   C19       1.0  0.08829966519068416  0.9246998860272652  0.540399665190684  1.0000
  C   C20       1.0  0.4465996745355204  0.5403996528848752  0.9246996745355206  1.0000
  C   C21       1.0  0.4465996237093028  0.924699991770271  0.08829962370930289  1.0000
  C   C22       1.0  0.08829975902330064  0.5403999625393653  0.44659975902330057  1.0000
  C   C23       1.0  0.5403998326223405  0.08829955116395288  0.9246998326223401  1.0000
  C   C24       1.0  0.9246997062898001  0.4465995893763161  0.5403997062897999  1.0000
  C   C25       1.0  0.44659984887601284  0.08829954143685108  0.9246998488760128  1.0000
  C   C26       1.0  0.08829979077758023  0.44659989903080616  0.54039979077758  1.0000
  C   C27       1.0  0.540399665190684  0.9246998860272652  0.08829966519068418  1.0000
  C   C28       1.0  0.9246996745355205  0.5403996528848752  0.44659967453552046  1.0000
  C   C29       1.0  0.08829962370930286  0.924699991770271  0.4465996237093028  1.0000
  C   C30       1.0  0.44659975902330074  0.5403999625393653  0.08829975902330053  1.0000
  C   C31       1.0  0.9246998326223402  0.08829955116395288  0.5403998326223404  1.0000
  C   C32       1.0  0.5403997062898002  0.4465995893763161  0.9246997062898  1.0000
  C   C33       1.0  0.9246997666035611  0.4465997059817546  0.08829976660356101  1.0000
  C   C34       1.0  0.5403998730500319  0.08829973448590273  0.44659987305003185  1.0000
  C   C35       1.0  0.08829971859560908  0.5403997792174156  0.9246997185956088  1.0000
  C   C36       1.0  0.4465996211305957  0.9246997596947248  0.5403996211305957  1.0000
  C   C37       1.0  0.006199966389040295  0.006199762872975373  0.58809996638904  1.0000
  C   C38       1.0  0.006199925502823362  0.006199886531662062  0.39949992550282337  1.0000
  C   C39       1.0  0.5880998132302135  0.3994998608616329  0.006199813230213563  1.0000
  C   C40       1.0  0.3994997641554179  0.5880999590112244  0.006199764155417769  1.0000
  C   C41       1.0  0.58809996638904  0.006199762872975373  0.006199966389040185  1.0000
  C   C42       1.0  0.39949992550282337  0.006199886531662062  0.006199925502823398  1.0000
  C   C43       1.0  0.0061997641554178496  0.5880999590112244  0.39949976415541777  1.0000
  C   C44       1.0  0.006199813230213676  0.3994998608616329  0.5880998132302134  1.0000
  C   C45       1.0  0.006199820608029139  0.5881000544349972  0.006199820608029263  1.0000
  C   C46       1.0  0.006199828796608199  0.3995000799440924  0.00619982879660821  1.0000
  C   C47       1.0  0.3994999099364288  0.0061996674492025726  0.5880999099364286  1.0000
  C   C48       1.0  0.5880999099364287  0.0061996674492025726  0.3994999099364287  1.0000
  H   H1        1.0  0.1508997281803296  0.40909976715149093  0.8619997281803295  1.0000
  H   H2        1.0  0.40909987231687356  0.1508996601405507  0.5779998723168736  1.0000
  H   H3        1.0  0.8619997191634458  0.5779997321538328  0.15089971916344577  1.0000
  H   H4        1.0  0.5779996188943405  0.8619997791091151  0.4090996188943406  1.0000
  H   H5        1.0  0.8619998118961577  0.15089959971983485  0.4090998118961575  1.0000
  H   H6        1.0  0.5779997886010456  0.40909982757220686  0.1508997886010455  1.0000
  H   H7        1.0  0.15089966142839203  0.8619998476239406  0.5779996614283918  1.0000
  H   H8        1.0  0.40909967662939445  0.5779996636390073  0.8619996766293944  1.0000
  H   H9        1.0  0.40909962570060904  0.861999972110932  0.15089962570060902  1.0000
  H   H10       1.0  0.1508997438563788  0.5779999170615403  0.40909974385637876  1.0000
  H   H11       1.0  0.5779997898888867  0.15089959070295106  0.8619997898888866  1.0000
  H   H12       1.0  0.8619997213740613  0.40909957414967396  0.5779997213740611  1.0000
  H   H13       1.0  0.4090998118961577  0.15089959971983485  0.8619998118961576  1.0000
  H   H14       1.0  0.15089978860104547  0.40909982757220686  0.5779997886010456  1.0000
  H   H15       1.0  0.577999661428392  0.8619998476239406  0.15089966142839178  1.0000
  H   H16       1.0  0.8619996766293945  0.5779996636390073  0.40909967662939434  1.0000
  H   H17       1.0  0.15089962570060902  0.861999972110932  0.409099625700609  1.0000
  H   H18       1.0  0.4090997438563787  0.5779999170615403  0.15089974385637883  1.0000
  H   H19       1.0  0.8619997898888865  0.15089959070295106  0.5779997898888867  1.0000
  H   H20       1.0  0.5779997213740613  0.40909957414967396  0.861999721374061  1.0000
  H   H21       1.0  0.8619997281803297  0.40909976715149093  0.15089972818032957  1.0000
  H   H22       1.0  0.5779998723168737  0.1508996601405507  0.4090998723168735  1.0000
  H   H23       1.0  0.15089971916344574  0.5779997321538328  0.8619997191634458  1.0000
  H   H24       1.0  0.4090996188943406  0.8619997791091151  0.5779996188943405  1.0000
  H   H25       1.0  0.9062295391164941  0.9062295391164941  0.9062295391164941  1.0000
  H   H26       1.0  0.9062295542006159  0.9062297603147583  0.28130955420061604  1.0000
  H   H27       1.0  0.9062297025797046  0.2813094635565816  0.9062297025797043  1.0000
  H   H28       1.0  0.2813095542006161  0.9062297603147583  0.9062295542006159  1.0000
  O   O1        1.0  0.9327305342252673  0.9327295146097826  0.932729534225267  1.0000
  O   O2        1.0  0.9327295922341482  0.9327307705921631  0.20180859223414813  1.0000
  O   O3        1.0  0.9327297509766785  0.2018084531071022  0.9327307509766786  1.0000
  O   O4        1.0  0.2018086120460066  0.9327297511730525  0.9327296120460062  1.0000
  O   O5        1.0  0.07879979718134228  0.26269973655953566  0.9263997971813421  1.0000
  O   O6        1.0  0.2626998563290681  0.07879970044442274  0.7320998563290678  1.0000
  O   O7        1.0  0.9263996553708012  0.7320997852746721  0.07879965537080112  1.0000
  O   O8        1.0  0.7320995719387243  0.9263998317464666  0.2626995719387244  1.0000
  O   O9        1.0  0.9263998563597725  0.07879961820267534  0.26269985635977233  1.0000
  O   O10       1.0  0.7320998548856916  0.2626997033311754  0.07879985488569168  1.0000
  O   O11       1.0  0.07879963083340356  0.9263998343494679  0.732099630833403  1.0000
  O   O12       1.0  0.26269965421117625  0.732099667201563  0.9263996542111761  1.0000
  O   O13       1.0  0.2626996773811055  0.9263999761600091  0.07879967738110549  1.0000
  O   O14       1.0  0.078799701887799  0.7321000093269607  0.26269970188779906  1.0000
  O   O15       1.0  0.7320998098120702  0.0787994763921342  0.9263998098120699  1.0000
  O   O16       1.0  0.9263997494740149  0.2626994766758855  0.7320997494740149  1.0000
  O   O17       1.0  0.26269985635977255  0.07879961820267534  0.9263998563597723  1.0000
  O   O18       1.0  0.07879985488569173  0.2626997033311754  0.7320998548856915  1.0000
  O   O19       1.0  0.7320996308334032  0.9263998343494679  0.07879963083340324  1.0000
  O   O20       1.0  0.9263996542111762  0.732099667201563  0.26269965421117614  1.0000
  O   O21       1.0  0.07879967738110552  0.9263999761600091  0.26269967738110545  1.0000
  O   O22       1.0  0.262699701887799  0.7321000093269607  0.07879970188779907  1.0000
  O   O23       1.0  0.9263998098120703  0.0787994763921342  0.73209980981207  1.0000
  O   O24       1.0  0.732099749474015  0.2626994766758855  0.9263997494740148  1.0000
  O   O25       1.0  0.9263997971813424  0.26269973655953566  0.0787997971813422  1.0000
  O   O26       1.0  0.732099856329068  0.07879970044442274  0.262699856329068  1.0000
  O   O27       1.0  0.07879965537080144  0.7320997852746721  0.9263996553708008  1.0000
  O   O28       1.0  0.26269957193872445  0.9263998317464666  0.7320995719387243  1.0000
  O   O29       1.0  0.04942998361700453  0.049429983617004514  0.04942998361700451  1.0000
  O   O30       1.0  0.04942992562945051  0.04942971605120514  0.8517099256294506  1.0000
  O   O31       1.0  0.04942971605120503  0.851710135207696  0.04942971605120523  1.0000
  O   O32       1.0  0.8517099256294505  0.04942971605120514  0.04942992562945063  1.0000
  Zr  Zr1       1.0  0.8795999016898176  0.12039965920259137  0.12039990168981746  1.0000
  Zr  Zr2       1.0  0.12039960841248523  0.8795998508997115  0.8795996084124854  1.0000
  Zr  Zr3       1.0  0.12039971693764516  0.879600028706936  0.12039971693764513  1.0000
  Zr  Zr4       1.0  0.8795997931646575  0.12039948139536696  0.8795997931646575  1.0000
  Zr  Zr5       1.0  0.12039990168981775  0.12039965920259137  0.8795999016898173  1.0000
  Zr  Zr6       1.0  0.8795996084124853  0.8795998508997115  0.12039960841248534  1.0000
