data_image0
_chemical_formula_structural       Zr6O30N6C48H30
_chemical_formula_sum              "Zr6 O30 N6 C48 H30"
_cell_length_a       14.555220898802279
_cell_length_b       14.555222993456669
_cell_length_c       14.555220352099612
_cell_angle_alpha    61.84915441075754
_cell_angle_beta     61.849164654906254
_cell_angle_gamma    61.84912861774184

_space_group_name_H-M_alt    "P 1"
_space_group_IT_number       1

loop_
  _space_group_symop_operation_xyz
  'x, y, z'

loop_
  _atom_site_type_symbol
  _atom_site_label
  _atom_site_symmetry_multiplicity
  _atom_site_fract_x
  _atom_site_fract_y
  _atom_site_fract_z
  _atom_site_occupancy
  Zr  Zr1       1.0  0.8749135640999999  0.12001735399999999  0.12449790469999998  1.0000
  Zr  Zr2       1.0  0.12449780539999998  0.8749136947  0.12001735080000002  1.0000
  Zr  Zr3       1.0  0.12001737289999992  0.12449798749999996  0.8749135355  1.0000
  Zr  Zr4       1.0  0.8835661645999998  0.8801373746999999  0.12713377619999996  1.0000
  Zr  Zr5       1.0  0.12713396490000006  0.8835661156  0.8801374256999999  1.0000
  Zr  Zr6       1.0  0.8801375188  0.12713385850000006  0.8835662877  1.0000
  O   O1        1.0  0.9170719776999999  0.2641788905  0.0861961986  1.0000
  O   O2        1.0  0.0861960944  0.9170716406  0.2641790468  1.0000
  O   O3        1.0  0.2641789314  0.08619607300000005  0.9170717927999998  1.0000
  O   O4        1.0  0.9152784542999998  0.08790286009999998  0.737636335  1.0000
  O   O5        1.0  0.0879025973  0.7376364077000002  0.9152785763999998  1.0000
  O   O6        1.0  0.7376365937000001  0.9152791194999998  0.08790141039999999  1.0000
  O   O7        1.0  0.9203452396999999  0.7629706323999998  0.04557549169999999  1.0000
  O   O8        1.0  0.7629709323999999  0.04557609060000008  0.9203440244  1.0000
  O   O9        1.0  0.24499271179999998  0.9530587605  0.0827409293  1.0000
  O   O10       1.0  0.04557523940000001  0.9203450892999999  0.7629708199  1.0000
  O   O11       1.0  0.8368813286999999  0.046711862199999996  0.050072243800000006  1.0000
  O   O12       1.0  0.05007241980000009  0.8368814638999998  0.04671169680000001  1.0000
  O   O13       1.0  0.08274091699999997  0.2449929573  0.9530584304  1.0000
  O   O14       1.0  0.9530586887  0.0827408043  0.2449928462  1.0000
  O   O15       1.0  0.26757809830000007  0.7357038457999999  0.08084960889999998  1.0000
  O   O16       1.0  0.08084915409999999  0.2675783276  0.7357036358  1.0000
  O   O17       1.0  0.7282923711999999  0.2628443989  0.08262750110000001  1.0000
  O   O18       1.0  0.9241780654  0.7349896037999998  0.264521673  1.0000
  O   O19       1.0  0.2645217668000001  0.9241782318  0.7349893019999999  1.0000
  O   O20       1.0  0.7349897164999998  0.2645219962  0.9241778841  1.0000
  O   O21       1.0  0.046711634200000005  0.05007241240000003  0.8368814371  1.0000
  O   O22       1.0  0.7452160040999999  0.9185240243  0.2747468147  1.0000
  O   O23       1.0  0.08262727850000008  0.7282925940999998  0.2628444818  1.0000
  O   O24       1.0  0.9574215422999998  0.9543436389  0.1643516311  1.0000
  O   O25       1.0  0.9543435768999998  0.16435166980000002  0.957421727  1.0000
  O   O26       1.0  0.16435147609999998  0.9574217429999999  0.9543437447000002  1.0000
  O   O27       1.0  0.9185235917999997  0.27474707750000005  0.7452160462  1.0000
  O   O28       1.0  0.26284473479999987  0.08262707559999995  0.7282923936000001  1.0000
  O   O29       1.0  0.27474734689999997  0.7452163265999999  0.9185239084  1.0000
  O   O30       1.0  0.7357038303999999  0.08084937010000003  0.2675781593  1.0000
  N   N1        1.0  0.7992498240999999  0.4599191926999999  0.1167255976  1.0000
  N   N2        1.0  0.11672448320000003  0.7992488297  0.45992005680000003  1.0000
  N   N3        1.0  0.4599194052999999  0.11672420990000007  0.7992489628  1.0000
  N   N4        1.0  0.8167458059  0.5986956636999999  0.4318255544  1.0000
  N   N5        1.0  0.5986952053999999  0.43182540810000003  0.816746044  1.0000
  N   N6        1.0  0.43182536860000015  0.8167460157999998  0.5986955035  1.0000
  C   C1        1.0  0.0038305617000000567  0.7080344446999999  0.9843847118  1.0000
  C   C2        1.0  0.9843853905  0.0038295501000000505  0.7080344965999998  1.0000
  C   C3        1.0  0.015040748599999975  0.9987990057  0.2987928168  1.0000
  C   C4        1.0  0.7080344038  0.9843844850999999  0.0038304750999999995  1.0000
  C   C5        1.0  0.9957343782  0.4051067637  0.007909437599999998  1.0000
  C   C6        1.0  0.4051066804999999  0.0079097519  0.9957339929  1.0000
  C   C7        1.0  0.2987925171  0.0150409973  0.9987991024  1.0000
  C   C8        1.0  0.9987993621000001  0.29879267679999993  0.015040732299999998  1.0000
  C   C9        1.0  0.8980791038000001  0.4793861083  0.05853937540000001  1.0000
  C   C10       1.0  0.058538821399999975  0.8980784476  0.47938642090000005  1.0000
  C   C11       1.0  0.0979427692  0.5298321169000001  0.9414152029  1.0000
  C   C12       1.0  0.9920166686999998  0.0019831999000000555  0.6026936040999998  1.0000
  C   C13       1.0  0.0019836589999999103  0.6026934104  0.9920166212  1.0000
  C   C14       1.0  0.6026934314999999  0.9920171611  0.0019827616  1.0000
  C   C15       1.0  0.007909412400000026  0.995733801  0.40510706309999994  1.0000
  C   C16       1.0  0.9501270399999999  0.09330606680000009  0.4331174204999999  1.0000
  C   C17       1.0  0.3107483783999998  0.7000499157  0.9994268735000001  1.0000
  C   C18       1.0  0.7000497951000001  0.9994267345000001  0.3107483107  1.0000
  C   C19       1.0  0.9994275246999998  0.3107483859  0.7000495242  1.0000
  C   C20       1.0  0.5941816431999999  0.40671310669999994  0.998348012  1.0000
  C   C21       1.0  0.002817412499999986  0.6910209142  0.3056555825  1.0000
  C   C22       1.0  0.6910206561  0.3056555947  0.0028179772  1.0000
  C   C23       1.0  0.9414157384999999  0.09794206049999997  0.5298322983  1.0000
  C   C24       1.0  0.5776179045000001  0.0487269884  0.9045015012999998  1.0000
  C   C25       1.0  0.43311682429999987  0.9501278059  0.0933062402  1.0000
  C   C26       1.0  0.09330646559999997  0.4331172896000002  0.9501266667999999  1.0000
  C   C27       1.0  0.04872710950000005  0.9045012774  0.5776182777  1.0000
  C   C28       1.0  0.529832016  0.9414163278  0.0979423901  1.0000
  C   C29       1.0  0.9045023205999998  0.5776177716999998  0.04872729249999999  1.0000
  C   C30       1.0  0.47938618589999993  0.05853890140000003  0.8980784623  1.0000
  C   C31       1.0  0.4481942278999999  0.08728261020000001  0.5409813372  1.0000
  C   C32       1.0  0.9117069007999999  0.45981184780000006  0.5596923091  1.0000
  C   C33       1.0  0.5596923844000001  0.9117066195999998  0.4598117628  1.0000
  C   C34       1.0  0.9078315718  0.5523158479  0.46382076279999995  1.0000
  C   C35       1.0  0.46382084889999997  0.9078317565  0.5523154437999999  1.0000
  C   C36       1.0  0.5986366311000001  0.0002422899000000811  0.4093279733  1.0000
  C   C37       1.0  0.5523155824999999  0.46382070630000005  0.9078320167999998  1.0000
  C   C38       1.0  0.45981172289999994  0.5596924862999999  0.9117069004999999  1.0000
  C   C39       1.0  0.08728222949999999  0.5409819955000001  0.4481941531  1.0000
  C   C40       1.0  0.5409816212  0.4481939141  0.0872827196  1.0000
  C   C41       1.0  0.9983477645  0.5941819884000001  0.4067132063  1.0000
  C   C42       1.0  0.45018656689999986  0.5422052073  0.0897842162  1.0000
  C   C43       1.0  0.5422050553999999  0.08978381660000005  0.45018686249999995  1.0000
  C   C44       1.0  0.08978394740000008  0.45018683739999993  0.5422053595  1.0000
  C   C45       1.0  0.00024204210000000614  0.4093282249  0.5986363908999999  1.0000
  C   C46       1.0  0.40671306620000003  0.9983478245  0.5941815911999999  1.0000
  C   C47       1.0  0.4093281153999999  0.5986365051  0.00024235779999992602  1.0000
  C   C48       1.0  0.30565528360000005  0.0028179268000000624  0.6910207628999999  1.0000
  H   H1        1.0  0.17408091710000012  0.5499647028000001  0.8976096067999999  1.0000
  H   H2        1.0  0.8976103382  0.1740804011  0.5499649069999999  1.0000
  H   H3        1.0  0.8311275803  0.6355974122999999  0.08664836680000002  1.0000
  H   H4        1.0  0.16643141369999992  0.3746408269  0.9128616757  1.0000
  H   H5        1.0  0.5499643441000001  0.8976114895  0.17408040419999998  1.0000
  H   H6        1.0  0.9128624955  0.16643115440000003  0.3746408480999999  1.0000
  H   H7        1.0  0.6355976135999998  0.0866477174000001  0.8311264424999999  1.0000
  H   H8        1.0  0.3746403368  0.9128635024999999  0.1664314281  1.0000
  H   H9        1.0  0.08664790199999989  0.8311266379000001  0.6355978072  1.0000
  H   H10       1.0  0.5727275406999999  0.15934112630000002  0.4095842982999999  1.0000
  H   H11       1.0  0.15934090269999995  0.4095846296000001  0.5727276842  1.0000
  H   H12       1.0  0.40958421030000003  0.5727273159999999  0.1593414064  1.0000
  H   H13       1.0  0.5735077878999998  0.4022055637  0.1559503895  1.0000
  H   H14       1.0  0.1559499397999999  0.5735081672  0.4022060017  1.0000
  H   H15       1.0  0.42717125659999994  0.6050145984999998  0.8430660257999999  1.0000
  H   H16       1.0  0.40220568149999997  0.1559502387  0.5735077919  1.0000
  H   H17       1.0  0.6050146915999999  0.8430659448  0.42717105039999986  1.0000
  H   H18       1.0  0.7928979614999999  0.3931796526  0.11713308250000001  1.0000
  H   H19       1.0  0.7303793624999999  0.5246882764  0.12922827  1.0000
  H   H20       1.0  0.8430658214999999  0.4271713706  0.6050143825  1.0000
  H   H21       1.0  0.8201821752000003  0.6571156455  0.35675676689999997  1.0000
  H   H22       1.0  0.35675673510000006  0.8201825511000002  0.6571154443999999  1.0000
  H   H23       1.0  0.7654173225999997  0.5545385816000001  0.4652109899  1.0000
  H   H24       1.0  0.12922681709999995  0.7303786157  0.5246887559  1.0000
  H   H25       1.0  0.6571153664  0.3567566498000001  0.8201825152  1.0000
  H   H26       1.0  0.5246887301000001  0.12922624349999998  0.730378511  1.0000
  H   H27       1.0  0.1171317814  0.792897191  0.39318013199999996  1.0000
  H   H28       1.0  0.3931799688  0.11713151999999993  0.7928973007000001  1.0000
  H   H29       1.0  0.5545385984999999  0.46521121290000006  0.7654173093999999  1.0000
  H   H30       1.0  0.46521112389999997  0.7654168994  0.5545388427  1.0000
