
#======================================================================
# CRYSTAL DATA
#----------------------------------------------------------------------
data_VESTA_phase_1

_chemical_name_common                  'C48H30N6O30Zr6'
_cell_length_a                         14.555221
_cell_length_b                         14.555221
_cell_length_c                         14.555221
_cell_angle_alpha                      61.849136
_cell_angle_beta                       61.849136
_cell_angle_gamma                      61.849136
_cell_volume                           2270.708241
_space_group_name_H-M_alt              'R 3'
_space_group_IT_number                 146

loop_
_space_group_symop_operation_xyz
   'x, y, z'
   'z, x, y'
   'y, z, x'

loop_
   _atom_site_label
   _atom_site_occupancy
   _atom_site_fract_x
   _atom_site_fract_y
   _atom_site_fract_z
   _atom_site_adp_type
   _atom_site_B_iso_or_equiv
   _atom_site_type_symbol
   C1         1.0     1.041368     0.337164     0.317718    Biso  1.000000 C
   C2         1.0     1.332133     0.348374    -0.367874    Biso  1.000000 C
   C3         1.0     0.738441     0.329067     0.341243    Biso  1.000000 C
   C4         1.0     0.812720     0.231412     0.391873    Biso  1.000000 C
   C5         1.0     0.863166     0.431276     0.274748    Biso  1.000000 C
   C6         1.0     1.335317     0.325350    -0.063973    Biso  1.000000 C
   C7         1.0     1.426640     0.283460    -0.233549    Biso  1.000000 C
   C8         1.0     1.033384     0.644081     0.332760    Biso  1.000000 C
   C9         1.0     0.740299     0.927767     0.331934    Biso  1.000000 C
   C10        1.0     1.024523     0.336319    -0.360843    Biso  1.000000 C
   C11        1.0     1.382061    -0.089049     0.237835    Biso  1.000000 C
   C12        1.0     0.420616     0.781527    -0.125686    Biso  1.000000 C
   C13        1.0     0.793146     1.245040    -0.106975    Biso  1.000000 C
   C14        1.0     0.885650     1.241165    -0.202846    Biso  1.000000 C
   C15        1.0     1.333333    -0.068030    -0.257339    Biso  1.000000 C
   C16        1.0     0.875539     0.783520    -0.576883    Biso  1.000000 C
   H17        1.0     0.883299     0.507414     0.230943    Biso  1.000000 H
   H18        1.0     0.968931     0.164461     0.419981    Biso  1.000000 H
   H19        1.0     0.707975     0.499764     0.246195    Biso  1.000000 H
   H20        1.0     0.492675     0.906061    -0.257083    Biso  1.000000 H
   H21        1.0     0.735539     0.906841    -0.510716    Biso  1.000000 H
   H22        1.0     0.938349     0.760504     0.176399    Biso  1.000000 H
   H23        1.0     0.726514     1.126231    -0.549534    Biso  1.000000 H
   H24        1.0     0.858022     1.063712    -0.537439    Biso  1.000000 H
   H25        1.0     0.990450     1.153515    -0.309910    Biso  1.000000 H
   H26        1.0     0.887872     1.098750    -0.201456    Biso  1.000000 H
   N27        1.0     0.793253     0.132583     0.450059    Biso  1.000000 N
   N28        1.0     0.932030     1.150079    -0.234841    Biso  1.000000 N
   O29        1.0     0.597513     0.250405     0.419529    Biso  1.000000 O
   O30        1.0     1.421237     0.248611     0.070970    Biso  1.000000 O
   O31        1.0     1.096304     0.253678     0.378909    Biso  1.000000 O
   O32        1.0     1.286393    -0.421674     0.416074    Biso  1.000000 O
   O33        1.0     0.380046     1.170214    -0.616595    Biso  1.000000 O
   O34        1.0     1.069038     0.600911    -0.585817    Biso  1.000000 O
   O35        1.0     0.596178     1.061625    -0.584039    Biso  1.000000 O
   O36        1.0     1.068323     0.257511     0.597855    Biso  1.000000 O
   O37        1.0     1.251858     0.078549     0.608080    Biso  1.000000 O
   O38        1.0     1.287678     0.290755     0.497685    Biso  1.000000 O
   Zr39       1.0     0.453351     1.208246    -0.542169    Biso  1.000000 Zr
   Zr40       1.0     1.213612     0.216758     0.460467    Biso  1.000000 Zr
