data_image0
_chemical_formula_structural       Zr6O30N6C48H30
_chemical_formula_sum              "Zr6 O30 N6 C48 H30"
_cell_length_a       14.58555173528223
_cell_length_b       14.585559870346078
_cell_length_c       14.585558132509012
_cell_angle_alpha    61.71030015182968
_cell_angle_beta     61.71029224349973
_cell_angle_gamma    61.71022017656024

_space_group_name_H-M_alt    "P 1"
_space_group_IT_number       1

loop_
  _space_group_symop_operation_xyz
  'x, y, z'

loop_
  _atom_site_type_symbol
  _atom_site_label
  _atom_site_symmetry_multiplicity
  _atom_site_fract_x
  _atom_site_fract_y
  _atom_site_fract_z
  _atom_site_occupancy
  Zr  Zr1       1.0  0.8737150608999998  0.1196090949  0.12319181469999997  1.0000
  Zr  Zr2       1.0  0.12319307689999993  0.8737146256  0.1196099175  1.0000
  Zr  Zr3       1.0  0.11960915790000005  0.12319249180000003  0.8737147065999998  1.0000
  Zr  Zr4       1.0  0.8821981737999999  0.8801173886999999  0.1265636929  1.0000
  Zr  Zr5       1.0  0.12656286929999996  0.8821983457  0.8801180646  1.0000
  Zr  Zr6       1.0  0.8801173796999998  0.12656303900000002  0.8821992263  1.0000
  O   O1        1.0  0.9222027762999999  0.25943585689999993  0.08581761629999998  1.0000
  O   O2        1.0  0.08581767100000007  0.9222030414  0.25943622699999996  1.0000
  O   O3        1.0  0.2594364331999999  0.08581919759999997  0.9222010156  1.0000
  O   O4        1.0  0.9153735206999999  0.08404946209999997  0.7387373659  1.0000
  O   O5        1.0  0.08404947049999993  0.7387367977000001  0.9153748904  1.0000
  O   O6        1.0  0.7387356167999998  0.9153768670000001  0.0840476369  1.0000
  O   O7        1.0  0.9192809536  0.7592087822  0.049964351000000004  1.0000
  O   O8        1.0  0.7592109902  0.04996486549999992  0.9192782340000001  1.0000
  O   O9        1.0  0.24946995530000007  0.9445837262999999  0.0819584892  1.0000
  O   O10       1.0  0.04996494000000001  0.9192806133000001  0.7592085489999999  1.0000
  O   O11       1.0  0.8361911013999999  0.04656894659999999  0.04869715620000001  1.0000
  O   O12       1.0  0.04869748599999994  0.8361922864  0.0465675983  1.0000
  O   O13       1.0  0.08195996599999998  0.24947084509999995  0.9445819447  1.0000
  O   O14       1.0  0.9445818835999997  0.08195956610000003  0.24947076729999998  1.0000
  O   O15       1.0  0.2653372214000001  0.7330292070999999  0.0812827901  1.0000
  O   O16       1.0  0.08128265429999999  0.26533704469999997  0.7330291200000001  1.0000
  O   O17       1.0  0.7292059659  0.2630639701  0.08056031649999999  1.0000
  O   O18       1.0  0.9221168601000003  0.7361851826  0.26518258079999996  1.0000
  O   O19       1.0  0.26518318719999995  0.9221149421  0.7361855365  1.0000
  O   O20       1.0  0.7361855379  0.26518283909999996  0.9221158884  1.0000
  O   O21       1.0  0.046567445400000025  0.04869696810000004  0.8361920999999999  1.0000
  O   O22       1.0  0.743033195  0.9189611254999998  0.2728276041  1.0000
  O   O23       1.0  0.08056071750000007  0.7292064687  0.26306402459999995  1.0000
  O   O24       1.0  0.9563464322  0.9541741972999997  0.1633009072  1.0000
  O   O25       1.0  0.9541738005999999  0.16330136529999997  0.9563459843999998  1.0000
  O   O26       1.0  0.16330076370000007  0.9563471118999998  0.9541743790999999  1.0000
  O   O27       1.0  0.918957673  0.27282667120000004  0.7430349317999999  1.0000
  O   O28       1.0  0.2630642852000001  0.08055898700000001  0.7292066747999998  1.0000
  O   O29       1.0  0.2728275495000001  0.7430336164999999  0.9189593127999999  1.0000
  O   O30       1.0  0.7330293554000001  0.08128453539999998  0.265336723  1.0000
  N   N1        1.0  0.8163582469999999  0.43494307199999993  0.1517556499  1.0000
  N   N2        1.0  0.15175354080000003  0.8163622893999999  0.4349393229  1.0000
  N   N3        1.0  0.43494209469999984  0.15175529179999997  0.8163588629  1.0000
  N   N4        1.0  0.8173638204999998  0.5965975263999999  0.42959212230000005  1.0000
  N   N5        1.0  0.5965968111000001  0.4295926265  0.8173642130999996  1.0000
  N   N6        1.0  0.42958545700000017  0.8173669037999998  0.5966032939  1.0000
  C   C1        1.0  0.0020197945000001213  0.7065442733  0.9864694455999998  1.0000
  C   C2        1.0  0.9864689826  0.0020202216000000336  0.7065436213999999  1.0000
  C   C3        1.0  0.01215326860000001  0.0007314797999999965  0.2981813602  1.0000
  C   C4        1.0  0.7065440016999999  0.9864640931  0.0020254639999999994  1.0000
  C   C5        1.0  0.9974093666  0.4030797713  0.0084021432  1.0000
  C   C6        1.0  0.4030798508999999  0.008401252799999998  0.9974108194  1.0000
  C   C7        1.0  0.2981812438  0.012152539599999998  0.0007328929  1.0000
  C   C8        1.0  0.0007341556000000034  0.2981817904  0.012150940100000002  1.0000
  C   C9        1.0  0.9067856741999998  0.46618367929999993  0.0762617348  1.0000
  C   C10       1.0  0.07626525720000009  0.9067809801999999  0.4661838927  1.0000
  C   C11       1.0  0.09123871520000008  0.5384969465000001  0.9271337336999997  1.0000
  C   C12       1.0  0.9937390817999998  0.001694364399999982  0.6008700856  1.0000
  C   C13       1.0  0.0016999004999999183  0.6008705795999999  0.9937343732  1.0000
  C   C14       1.0  0.6008702867  0.9937378854  0.0016954024000000003  1.0000
  C   C15       1.0  0.008400146500000018  0.9974120502  0.40307997879999996  1.0000
  C   C16       1.0  0.9354125217999998  0.08766872579999996  0.4416590949  1.0000
  C   C17       1.0  0.30860869890000026  0.6974738701  0.9999933686999999  1.0000
  C   C18       1.0  0.6974739002000001  0.9999900565999998  0.30860889499999994  1.0000
  C   C19       1.0  0.9999935275000001  0.30860918779999996  0.6974730393999999  1.0000
  C   C20       1.0  0.5942479313  0.4061909526  0.9971161994  1.0000
  C   C21       1.0  0.000916449500000149  0.6918475042999997  0.3059360032999999  1.0000
  C   C22       1.0  0.6918467548999999  0.3059363357  0.0009175805  1.0000
  C   C23       1.0  0.9271311070999999  0.09124242579999997  0.5384980449  1.0000
  C   C24       1.0  0.5649609995999999  0.06620275569999996  0.9117599343999999  1.0000
  C   C25       1.0  0.4416591134000001  0.9354125697  0.08766917369999999  1.0000
  C   C26       1.0  0.08767110330000011  0.44166162069999987  0.9354104361  1.0000
  C   C27       1.0  0.06620200709999997  0.9117609585999998  0.5649615719  1.0000
  C   C28       1.0  0.5384974724000001  0.9271316972999999  0.0912420676  1.0000
  C   C29       1.0  0.9117559743000001  0.5649605529  0.0662058251  1.0000
  C   C30       1.0  0.4661839725  0.07626370049999996  0.9067833375  1.0000
  C   C31       1.0  0.4483752539  0.08531167950000001  0.5417602405999999  1.0000
  C   C32       1.0  0.9130555859000001  0.4567469146  0.5562668701  1.0000
  C   C33       1.0  0.5562642985  0.9130555103999999  0.45674927469999993  1.0000
  C   C34       1.0  0.9080944741999999  0.5506432347  0.46174451659999993  1.0000
  C   C35       1.0  0.46174784049999995  0.9080944858999999  0.5506389859  1.0000
  C   C36       1.0  0.5962038912  0.0006347561000001889  0.40729035769999994  1.0000
  C   C37       1.0  0.5506428863999999  0.4617442678  0.9080952435999999  1.0000
  C   C38       1.0  0.4567467257999999  0.5562670333  0.9130563235  1.0000
  C   C39       1.0  0.08531129370000008  0.5417647487999999  0.44837109499999994  1.0000
  C   C40       1.0  0.5417652236999999  0.44837022709999996  0.08531208009999999  1.0000
  C   C41       1.0  0.9971155699  0.5942484807  0.4061913298999999  1.0000
  C   C42       1.0  0.45012715560000005  0.5415179448999999  0.088531414  1.0000
  C   C43       1.0  0.5415134593  0.08852937999999998  0.45013157209999993  1.0000
  C   C44       1.0  0.0885307722  0.4501270373999998  0.5415178753000001  1.0000
  C   C45       1.0  0.0006336523999996846  0.407291274  0.5962027223  1.0000
  C   C46       1.0  0.40618884739999994  0.997115599  0.594249941  1.0000
  C   C47       1.0  0.4072919099000001  0.5962025270999998  0.0006339257000000931  1.0000
  C   C48       1.0  0.3059366893  0.0009163022000000389  0.6918467976999999  1.0000
  H   H1        1.0  0.16139305840000012  0.5673706697000002  0.8705980264999997  1.0000
  H   H2        1.0  0.8705993533  0.16139226919999994  0.5673696139999999  1.0000
  H   H3        1.0  0.8430551687000001  0.6147711475  0.1165510722  1.0000
  H   H4        1.0  0.15598754059999995  0.39162155129999987  0.8852435885  1.0000
  H   H5        1.0  0.5673690007999999  0.8705991319999999  0.16139277229999996  1.0000
  H   H6        1.0  0.8852434694999998  0.1559875961  0.39162143239999997  1.0000
  H   H7        1.0  0.6147722998  0.1165515066  0.8430542095  1.0000
  H   H8        1.0  0.3916205531  0.8852443215999999  0.1559872889  1.0000
  H   H9        1.0  0.11655203720000006  0.8430539257999999  0.6147719532  1.0000
  H   H10       1.0  0.5727632529  0.15734162079999997  0.4107079534  1.0000
  H   H11       1.0  0.1573413718  0.410708422  0.5727622905  1.0000
  H   H12       1.0  0.4107092807000001  0.5727622896  0.1573413802  1.0000
  H   H13       1.0  0.5758817526999999  0.4040278675999999  0.1526344079  1.0000
  H   H14       1.0  0.1526336115000001  0.5758816982999999  0.4040285002999999  1.0000
  H   H15       1.0  0.42240831349999997  0.5997632471999998  0.8458324732  1.0000
  H   H16       1.0  0.40402755209999996  0.1526348087  0.5758821452  1.0000
  H   H17       1.0  0.5997634769  0.8458322543999999  0.4224079868999999  1.0000
  H   H18       1.0  0.8089755153999999  0.3697875414999999  0.1504153988  1.0000
  H   H19       1.0  0.7476600542  0.49315539609999987  0.17960717939999998  1.0000
  H   H20       1.0  0.8458318164999999  0.4224086624  0.5997629687  1.0000
  H   H21       1.0  0.8191964061999999  0.6572841732  0.3560191079999999  1.0000
  H   H22       1.0  0.3560234047  0.8191959673999998  0.6572814047  1.0000
  H   H23       1.0  0.766189574  0.5525023007  0.4627919829  1.0000
  H   H24       1.0  0.17960812830000003  0.7476568941999999  0.4931586385999999  1.0000
  H   H25       1.0  0.6572844827999998  0.3560194526999999  0.8191964519  1.0000
  H   H26       1.0  0.4931569042999998  0.17960750390000002  0.7476588195999999  1.0000
  H   H27       1.0  0.15041497429999995  0.8089750483999999  0.36978958810000007  1.0000
  H   H28       1.0  0.3697885473  0.15041519459999994  0.8089750432  1.0000
  H   H29       1.0  0.5525022083  0.4627928221000001  0.7661898273999999  1.0000
  H   H30       1.0  0.4627950013000002  0.7661867067  0.5524998637999999  1.0000
