data_image0
_chemical_formula_structural       Zr6O30C48H24
_chemical_formula_sum              "Zr6 O30 C48 H24"
_cell_length_a       14.565623856499213
_cell_length_b       14.56563438771197
_cell_length_c       14.565637142018232
_cell_angle_alpha    61.67151702856285
_cell_angle_beta     61.671562444235576
_cell_angle_gamma    61.671520905947666

_space_group_name_H-M_alt    "P 1"
_space_group_IT_number       1

loop_
  _space_group_symop_operation_xyz
  'x, y, z'

loop_
  _atom_site_type_symbol
  _atom_site_label
  _atom_site_symmetry_multiplicity
  _atom_site_fract_x
  _atom_site_fract_y
  _atom_site_fract_z
  _atom_site_occupancy
  Zr  Zr1       1.0  0.8730086046  0.1189793526  0.12218763889999999  1.0000
  Zr  Zr2       1.0  0.12699139539999996  0.8810196474  0.8778123611000002  1.0000
  Zr  Zr3       1.0  0.12218809179999987  0.8730084025000001  0.11897939210000001  1.0000
  Zr  Zr4       1.0  0.8778119082  0.12699159749999994  0.8810196079000001  1.0000
  Zr  Zr5       1.0  0.1189783882  0.1221875448  0.8730083649  1.0000
  Zr  Zr6       1.0  0.8810206118  0.8778124552000001  0.12699163510000003  1.0000
  O   O1        1.0  0.9195924938  0.2615027822  0.084737073  1.0000
  O   O2        1.0  0.08040750619999987  0.7384972178000001  0.9152629270000002  1.0000
  O   O3        1.0  0.08473778010000002  0.9195906542  0.26150341520000003  1.0000
  O   O4        1.0  0.9152622198999999  0.08040934580000005  0.7384965848  1.0000
  O   O5        1.0  0.26150330019999996  0.08473745349999999  0.9195905494  1.0000
  O   O6        1.0  0.7384966997999999  0.9152625465  0.0804094506  1.0000
  O   O7        1.0  0.7547309526999999  0.05406012129999997  0.917748231  1.0000
  O   O8        1.0  0.24526904730000001  0.9459398786999998  0.082251769  1.0000
  O   O9        1.0  0.9177475321  0.7547302022000001  0.05406199040000001  1.0000
  O   O10       1.0  0.08225246789999993  0.24526979779999997  0.9459380096000001  1.0000
  O   O11       1.0  0.05406090759999995  0.9177488018000001  0.7547302003  1.0000
  O   O12       1.0  0.9459390924000001  0.08225119819999997  0.24526979970000004  1.0000
  O   O13       1.0  0.2663821838  0.9222948691999999  0.7338088558000001  1.0000
  O   O14       1.0  0.7336178162  0.0777051308  0.2661911442  1.0000
  O   O15       1.0  0.7338085993  0.26638158659999994  0.9222961396000001  1.0000
  O   O16       1.0  0.26619140069999997  0.7336184134000001  0.07770386040000002  1.0000
  O   O17       1.0  0.9222970063999999  0.7338088601000001  0.2663818097  1.0000
  O   O18       1.0  0.07770299360000005  0.2661911399  0.7336181903000001  1.0000
  O   O19       1.0  0.08354401749999998  0.7269643692000001  0.2590475405  1.0000
  O   O20       1.0  0.9164559824999999  0.2730356308  0.7409524595  1.0000
  O   O21       1.0  0.25904726  0.08354145750000001  0.7269643267000002  1.0000
  O   O22       1.0  0.7409527400000001  0.9164585425  0.27303567330000006  1.0000
  O   O23       1.0  0.7269642071  0.2590485654  0.0835417873  1.0000
  O   O24       1.0  0.27303579289999996  0.7409514346  0.9164582127  1.0000
  O   O25       1.0  0.8362116779  0.0446453135  0.04765088590000001  1.0000
  O   O26       1.0  0.1637883220999997  0.9553546865000002  0.9523491141000002  1.0000
  O   O27       1.0  0.04765121129999996  0.8362110491000001  0.044645518200000005  1.0000
  O   O28       1.0  0.9523487887  0.1637889509  0.9553544818000002  1.0000
  O   O29       1.0  0.044644355999999955  0.0476507257  0.8362123308000001  1.0000
  O   O30       1.0  0.9553556439999996  0.9523492743000002  0.1637876692  1.0000
  C   C1        1.0  0.6969896978999998  0.9971123548000002  0.3091845439  1.0000
  C   C2        1.0  0.3030103020999999  0.0028876451999999215  0.6908154561000002  1.0000
  C   C3        1.0  0.30918431680000014  0.6969896739999999  0.9971103614000002  1.0000
  C   C4        1.0  0.6908156831999999  0.303010326  0.0028896386  1.0000
  C   C5        1.0  0.9971114599999997  0.309184702  0.6969892169  1.0000
  C   C6        1.0  0.0028885400000000375  0.6908152979999999  0.3030107831  1.0000
  C   C7        1.0  0.9999242345999999  0.7042702859999999  0.9881972492000001  1.0000
  C   C8        1.0  7.576539999987197e-05  0.295729714  0.0118027508  1.0000
  C   C9        1.0  0.9881976529999998  0.9999244257000001  0.7042700377999999  1.0000
  C   C10       1.0  0.011802346999999814  7.557430000026955e-05  0.29572996220000003  1.0000
  C   C11       1.0  0.7042703210999999  0.988197834  0.9999236125  1.0000
  C   C12       1.0  0.29572967890000007  0.011802166000000005  7.638750000005246e-05  1.0000
  C   C13       1.0  0.999869309  0.40161913200000005  0.0050012827  1.0000
  C   C14       1.0  0.00013069099999986255  0.598380868  0.9949987173000001  1.0000
  C   C15       1.0  0.005002469799999988  0.9998673068000001  0.4016195508  1.0000
  C   C16       1.0  0.9949975301999999  0.00013269319999996453  0.5983804492000001  1.0000
  C   C17       1.0  0.4016195515  0.005002725699999969  0.9998673976000002  1.0000
  C   C18       1.0  0.5983804484999998  0.9949972743000002  0.00013260240000000003  1.0000
  C   C19       1.0  0.4044608312999999  0.0016328483999999903  0.5919897255  1.0000
  C   C20       1.0  0.5955391687  0.9983671516000001  0.4080102745  1.0000
  C   C21       1.0  0.5919895165  0.4044612977  0.0016339435000000003  1.0000
  C   C22       1.0  0.40801048350000013  0.5955387022999998  0.9983660565000001  1.0000
  C   C23       1.0  0.0016352555999999453  0.5919897566000001  0.4044609410000001  1.0000
  C   C24       1.0  0.9983647444  0.40801024339999986  0.595539059  1.0000
  C   C25       1.0  0.9098210252999999  0.4626211637  0.07220972200000002  1.0000
  C   C26       1.0  0.09017897469999993  0.5373788363000002  0.927790278  1.0000
  C   C27       1.0  0.07220811549999995  0.9098211037000001  0.46262178830000006  1.0000
  C   C28       1.0  0.9277918845  0.09017889630000002  0.5373782117  1.0000
  C   C29       1.0  0.46262176259999993  0.072207691  0.9098208856000001  1.0000
  C   C30       1.0  0.5373782374  0.9277923089999999  0.0901791144  1.0000
  C   C31       1.0  0.5603376672999997  0.06719693570000002  0.9098710672999999  1.0000
  C   C32       1.0  0.43966233269999994  0.9328030643  0.09012893270000001  1.0000
  C   C33       1.0  0.9098726353999999  0.5603355946000002  0.0671978559  1.0000
  C   C34       1.0  0.09012736459999995  0.43966440540000007  0.9328021440999998  1.0000
  C   C35       1.0  0.06719762609999994  0.9098713710000002  0.5603368342  1.0000
  C   C36       1.0  0.9328023739000001  0.09012862899999997  0.43966316580000003  1.0000
  C   C37       1.0  0.4577251703999998  0.9128623452000001  0.5511024391000001  1.0000
  C   C38       1.0  0.5422748295999998  0.08713765480000002  0.4488975609  1.0000
  C   C39       1.0  0.5511037726  0.45772478829999996  0.9128616652000001  1.0000
  C   C40       1.0  0.44889622739999996  0.5422752117  0.0871383348  1.0000
  C   C41       1.0  0.9128616798999998  0.5511034682  0.45772444000000007  1.0000
  C   C42       1.0  0.08713832010000003  0.4488965318  0.54227556  1.0000
  C   C43       1.0  0.08875294919999997  0.5402457655  0.44741443620000004  1.0000
  C   C44       1.0  0.9112470508000001  0.45975423449999997  0.5525855638  1.0000
  C   C45       1.0  0.44741395410000007  0.0887534148  0.5402459638  1.0000
  C   C46       1.0  0.5525860458999999  0.9112465852  0.45975403620000005  1.0000
  C   C47       1.0  0.5402461481  0.4474132335  0.08875347630000001  1.0000
  C   C48       1.0  0.45975385189999984  0.5525867664999999  0.9112465237000001  1.0000
  H   H1        1.0  0.5921028433  0.4236121855  0.8456836027000001  1.0000
  H   H2        1.0  0.40789715670000004  0.5763878145  0.1543163973  1.0000
  H   H3        1.0  0.8456845624  0.5921029566000001  0.4236107814000001  1.0000
  H   H4        1.0  0.15431543760000002  0.4078970434  0.5763892186000001  1.0000
  H   H5        1.0  0.42361204679999986  0.8456835724000001  0.5921014581  1.0000
  H   H6        1.0  0.5763879531999999  0.1543164276  0.4078985419  1.0000
  H   H7        1.0  0.5728443942  0.4052953831000001  0.1571384741  1.0000
  H   H8        1.0  0.42715560579999995  0.5947046169000001  0.8428615259  1.0000
  H   H9        1.0  0.1571387711  0.5728439695  0.40529711490000003  1.0000
  H   H10       1.0  0.8428612288999999  0.4271560305  0.5947028851  1.0000
  H   H11       1.0  0.40529553049999995  0.15713761500000004  0.5728453703  1.0000
  H   H12       1.0  0.5947044695000002  0.8428623850000001  0.4271546297  1.0000
  H   H13       1.0  0.12793376759999986  0.8403150608000001  0.4320930071  1.0000
  H   H14       1.0  0.8720662324  0.15968493920000001  0.5679069929  1.0000
  H   H15       1.0  0.43209340539999985  0.12793281600000003  0.8403146731000001  1.0000
  H   H16       1.0  0.5679065945999999  0.8720671840000002  0.15968532690000004  1.0000
  H   H17       1.0  0.8403168803999997  0.43209074920000007  0.12793519860000002  1.0000
  H   H18       1.0  0.15968311959999987  0.5679092508  0.8720648014000001  1.0000
  H   H19       1.0  0.11844610079999995  0.8401891288  0.6087866045  1.0000
  H   H20       1.0  0.8815538992  0.1598108712  0.3912133955  1.0000
  H   H21       1.0  0.6087875203999998  0.11844484099999993  0.8401889147000002  1.0000
  H   H22       1.0  0.39121247959999994  0.881555159  0.1598110853  1.0000
  H   H23       1.0  0.8401894497999997  0.6087851918  0.1184479781  1.0000
  H   H24       1.0  0.15981055019999987  0.39121480820000004  0.8815520219000001  1.0000
